LAMMPS (29 Sep 2021 - Update 3)
plugin load libdeepmd_lmp.so
Loading plugin: deepmd pair style v2.0 by Han Wang
Loading plugin: compute deeptensor/atom v2.0 by Han Wang
Loading plugin: fix dplr v2.0 by Han Wang
echo both

include		in.temp
variable	temperature equal 330.0
variable	tempDamp equal 0.1
include		in.pressure
variable        pressure equal 1.
variable        pressureDamp equal 1.0 # This is 1 ps
include		in.seed
variable        seed equal 745823

units		metal
atom_style	atomic
include		in.box
read_data       water.data
Reading data file ...
  triclinic box = (-0.040176314 0.19792126 0.080819291) to (18.247749 23.431257 22.132377) with tilt (0.0000000 0.0000000 0.0000000)
  reading atoms ...
  864 atoms
include 	in.setup
variable	out_freq equal 100
variable	out_freq2 equal 100

timestep	0.0005

neigh_modify    delay 10 every 1

include		in.deepmd
# This is a deepmd model

pair_style 	deepmd ../../frozen_model_1_compressed.pb ../../frozen_model_2_compressed.pb ../../frozen_model_3_compressed.pb ../../frozen_model_4_compressed.pb out_file md.out out_freq 100
Summary of lammps deepmd module ...
  >>> Info of deepmd-kit:
  installed to:       /home/ppiaggi/.conda/envs/deepmd
  source:             v2.1.1
  source branch:       HEAD
  source commit:      c4f0cec0
  source commit at:   2022-04-16 11:11:16 +0800
  surpport model ver.:1.1
  build float prec:   double
  build with tf inc:  /home/ppiaggi/.conda/envs/deepmd/include;/home/ppiaggi/.conda/envs/deepmd/include
  build with tf lib:  /home/ppiaggi/.conda/envs/deepmd/lib/libtensorflow_cc.so;/home/ppiaggi/.conda/envs/deepmd/lib/libtensorflow_framework.so
  set tf intra_op_parallelism_threads: 0
  set tf inter_op_parallelism_threads: 0
  >>> Info of lammps module:
  use deepmd-kit at:  /home/ppiaggi/.conda/envs/deepmdpair_coeff	* *

thermo          100
thermo_style 	custom step temp pe etotal epair emol press lx ly lz vol

restart 	100 restart.lmp restart2.lmp

include         in.dump
dump            myDump all atom 100 dump.water

timer           timeout 03:50:00 every 1000
New timer settings: style=normal  mode=nosync  timeout=03:50:00

fix             thermo_print all print 10 "$(step) $(enthalpy) $(vol)" file thermo.txt screen no title "#step enthalpy vol"
fix             1 all nph tri 1 1 1
fix             2 all temp/csvr 330 330 0.1 745823
fix             3 all momentum 10000 linear 1 1 1 rescale

velocity 	all create 330 745823 dist gaussian

run             2000000 upto # 1 ns

CITE-CITE-CITE-CITE-CITE-CITE-CITE-CITE-CITE-CITE-CITE-CITE-CITE

Your simulation uses code contributions which should be cited:

- USER-DEEPMD package:

@article{Wang_ComputPhysCommun_2018_v228_p178,
  author = {Wang, Han and Zhang, Linfeng and Han, Jiequn and E, Weinan},
  doi = {10.1016/j.cpc.2018.03.016},
  url = {https://doi.org/10.1016/j.cpc.2018.03.016},
  year = 2018,
  month = {jul},
  publisher = {Elsevier {BV}},
  volume = 228,
  journal = {Comput. Phys. Commun.},
  title = {{DeePMD-kit: A deep learning package for many-body potential energy representation and molecular dynamics}},
  pages = {178--184}
}

CITE-CITE-CITE-CITE-CITE-CITE-CITE-CITE-CITE-CITE-CITE-CITE-CITE

  update every 1 steps, delay 10 steps, check yes
Step Temp PotEng TotEng E_pair E_mol Press Lx Ly Lz Volume
0          330   -134648.42   -134611.61   -134648.42            0    34081.595    18.287925    23.233335    22.051557     9369.475
Averages over the last 10001 of 20001 rows, steps 1000000 to 2000000:
Temp PotEng TotEng E_pair E_mol Press Lx Ly Lz Volume
330.299 -134632 -134595 -134632 0 -5.57921 17.8551 23.1945 21.9452 9088.05
Loop time of 6585.62 on 8 procs for 2000000 steps with 864 atoms

write_data	data.final
System init for write_data ...

write_restart   restart.lmp
System init for write_restart ...
Unloading pair style deepmd
Unloading compute style deeptensor/atom
Unloading fix style dplr
